data_InSe_mp-20485_computed
_audit_creation_date              2020-04-27
_audit_creation_method            'Materials Studio'
_symmetry_space_group_name_H-M    'P1'
_symmetry_Int_Tables_number       1
_symmetry_cell_setting            triclinic
loop_
_symmetry_equiv_pos_as_xyz
  x,y,z
_cell_length_a                    3.8800
_cell_length_b                    3.8800
_cell_length_c                    20.0000
_cell_angle_alpha                 90.0000
_cell_angle_beta                  90.0000
_cell_angle_gamma                 120.0000
loop_
_atom_site_label
_atom_site_type_symbol
_atom_site_fract_x
_atom_site_fract_y
_atom_site_fract_z
_atom_site_U_iso_or_equiv
_atom_site_adp_type
_atom_site_occupancy
Se0    S     0.33333   0.66667   0.59680   0.00000  Uiso   1.00
Se3    Se    0.33333   0.66667   0.90320   0.00000  Uiso   1.00
In5    In    0.66667   0.33333   0.83039   0.00000  Uiso   1.00
In6    In    0.66667   0.33333   0.66961   0.00000  Uiso   1.00
loop_
_geom_bond_atom_site_label_1
_geom_bond_atom_site_label_2
_geom_bond_distance
_geom_bond_site_symmetry_2
_ccdc_geom_bond_type
Se0    In6     2.672   1_565 S
Se0    In6     2.672   1_455 S
Se3    In5     2.672   1_565 S
Se3    In5     2.672   1_455 S
In5    Se3     2.672   1_545 S
In5    Se3     2.672   1_655 S
In5    In6     3.216   .     S
In6    Se0     2.672   1_545 S
In6    Se0     2.672   1_655 S
